&NAM_CONFIO  LCDF4=T, LLFIOUT=T, LLFIREAD=F /
&NAM_DIMn_PRE NIMAX=256, NJMAX=1 /
&NAM_VER_GRID NKMAX=48 ZDZGRD=40., ZDZTOP=500.,
              ZZMAX_STRGRD=5000. , ZSTRGRD=10. , ZSTRTOP= 10. /
&NAM_CONF_PRE LCARTESIAN=.TRUE., LBOUSS=.FALSE., NVERB=5,
              CIDEAL='RSOU', CZS='BELL',LSHIFT=F 
              !JPHEXT = 3 , NHALO = 3 
              /
&NAM_CONFn LUSERV=.TRUE. /
&NAM_GRID_PRE XLAT0=43.29 /
&NAM_GRIDH_PRE XDELTAX=5.E3, XDELTAY=5.E3,
               XHMAX=500., XAX=10.E3, XAY=10.E3, NIZS=128, NJZS=2 /
&NAM_LUNITn CINIFILE='HYD2D' /
&NAM_LBCn_PRE CLBCX= 2*'CYCL', CLBCY= 2*'CYCL' /
&NAM_VPROF_PRE CTYPELOC='IJGRID', NILOC=10, NJLOC=2,
               CFUNU='ZZZ', CFUNV='ZZZ',
               LGEOSBAL=.FALSE. /
RSOU
2000 1 1 0.
'ZUVTHDMR'
0.0
100000.
285.
3.969834663680948E-3
49
 20.                 4.899679558744793   0.E+0
 61.99999999999977  6.087279296344803   0.E+0
 108.1999999999989  7.042433235678175   0.E+0
 159.0199999999977  7.950357035147192   0.E+0
 214.9219999999968  8.785414474783749   0.E+0
 276.4141999999938  9.560131493941583   0.E+0
 344.0556199999901  9.969777568513507   0.E+0
 418.4611819999845  9.99996961844414    0.E+0
 500.3073001999783  9.999999999993292   0.E+0
 590.3380302199694  9.999999999999773   0.E+0
 689.3718332419558  9.999999999999545   0.E+0
 798.3090165661415  9.999999999998863   0.E+0
 918.1399182227397  10.00000000000006   0.E+0
 1049.953910044998  10.                 0.E+0
 1194.949301049477  10.00000000000034   0.E+0
 1354.444231154397  10.                 0.E+0
 1529.888654269809  9.999999999999829   0.E+0
 1722.877519696762  9.999999999999773   0.E+0
 1935.165271666403  9.999999999999773   0.E+0
 2168.681798833     10.0000000000004       0.E+0
 2425.549978716255  10.00000000000011   0.E+0
 2708.104976587842  9.999999999999545   0.E+0
 3018.915474246562  10.                0.E+0
 3360.807021671164  10.00000000000006   0.E+0
 3736.887723838212  9.999999999999432   0.E+0
 4150.57649622194  10.00000000000006   0.E+0
 4605.634145844058  10.00000000000006   0.E+0
 5093.99767659849  10.  0.E+0
 5593.99767659849  10.   0.E+0
 6093.99767659849  9.999999999998749  0.E+0
 6593.99767659849  9.999999999999773  0.E+0
 7093.99767659849  9.999999999999432  0.E+0
 7593.99767659849  10.00000000000006  0.E+0
 8093.99767659849  10.  0.E+0
 8593.99767659849  9.999999999999147  0.E+0
 9093.99767659849  10.00000000000006  0.E+0
 9593.99767659849  10.00000000000006  0.E+0
 10093.99767659849  10.               0.E+0
 10593.99767659849 9.999999999998977  0.E+0
 11093.99767659849  10.  0.E+0
 11593.99767659849  10.  0.E+0
 12093.99767659849  10.  0.E+0
 12593.99767659849  10.  0.E+0
 13093.99767659849  9.999999999998806  0.E+0
 13593.99767659849  10.00000000000006  0.E+0
 14093.99767659849  10.                0.E+0
 14593.99767659849  10.00000000000006  0.E+0
 15093.99767659849  10.00000000000034  0.E+0
 15843.99767659849  10.00000000000034  0.E+0
49
 20.                284.6918121778854  3.973551993460444E-3
 61.99999999999977  284.7008998576166  3.969834663680948E-3
 108.1999999999989  284.7182724643735  3.962732181377909E-3
 159.0199999999977  284.7505499845665  3.949548259937901E-3
 214.9219999999968  284.810525987461   3.925090498607009E-3
 276.4141999999938  284.9486405349289  3.868947516355414E-3
 344.0556199999901  285.293033532138   3.730476389686751E-3
 418.4611819999845  285.5932587278658  3.612842473712671E-3
 500.3073001999783  285.8491631402867  3.51511669145689E-3
 590.3380302199694  286.1297982441884  3.410155487933538E-3
 689.3718332419558  286.4383568052544  3.297386361121687E-3
 798.3090165661415  286.7776070523178  3.176551555237355E-3
 918.1399182227397  287.1505909368971  3.047462833824884E-3
 1049.953910044998  287.560651584743   2.910023326054639E-3
 1194.949301049477  288.0114637878232  2.764252892850011E-3
 1354.444231154397  288.5070679989312  2.610317036379691E-3
 1529.888654269809  289.0519084107491  2.448559116302651E-3
 1722.877519696762  289.6508758516065  2.27953524704956E-3
 1935.165271666403  290.3093564286264  2.104050693308212E-3
 2168.681798833     291.0332871047012  1.923195815810303E-3
 2425.549978716255  291.8292197230421  1.738378612484041E-3
 2708.104976587842  292.704395402463   1.551349637705479E-3
 3018.915474246562  293.6668317208696  1.364213596329405E-3
 3360.807021671164  294.7254256822107  1.17942031424878E-3
 3736.887723838212  295.8900760906345  9.99726336926375E-4
 4150.57649622194   297.1718295736846  8.281175612891052E-4
 4605.634145844058  298.5830549909097  6.676838010179451E-4
 5093.99767659849   300.0997284145978  5.246601204132832E-4
 5593.99767659849   301.6555663366998  4.053429487614022E-4
 6093.99767659849   303.2151642882291  3.094472822477174E-4
 6593.99767659849   304.7791762247198  2.332880980962731E-4
 7093.99767659849   306.348201035793   1.735561634422337E-4
 7593.99767659849   307.9227797563744  1.273221166139364E-4
 8093.99767659849   309.5033947298434  9.203044616376164E-5
 8593.99767659849   311.0904704959285  6.548482863943938E-5
 9093.99767659849   312.6843761373293  4.582644772997235E-5
 9593.99767659849   314.2854287947303  3.150698808811647E-5
 10093.99767659849  315.8938980526436  2.12579856440668E-6
 10593.99767659849  317.510010904125   1.405813326967427E-6
 11093.99767659849  319.1339570210475  9.09999808017519E-7
 11593.99767659849  320.7658940836536  5.757417140833356E-7
 12093.99767659849  322.4059529598653  3.554615207638603E-7
 12593.99767659849  324.0542425640779  2.137845189416023E-7
 13093.99767659849  325.7108542704755  1.250103289131598E-7
 14093.99767659849  329.0493445271368  3.894876870197631E-8
 14593.99767659849  330.7313501116605  2.065174327501689E-8
 15093.99767659849  332.4219373463184  1.054266626352389E-8
 15843.99767659849  332.4219373463184  1.054266626352389E-8

