&NAM_CONFIO  LCDF4=T, LLFIOUT=T, LLFIREAD=F /
&NAM_CONF_NEST 
    !JPHEXT =3 , NHALO_MNH = 3 
    /
&NAM_PGD1 YPGD1 = '16JAN98_36km' /
&NAM_PGD2 YPGD2 = '16JAN98_9km', IDAD = 1 /
&NAM_NEST_PGD YNEST = 'e1' /

