&NAM_CONFIO  LCDF4=T, LLFIOUT=T, LLFIREAD=F /
&NAM_CONFZ
 ! NZ_VERB=5 , NZ_PROC=0 , NB_PROCIO_R=8 , NB_PROCIO_W=1
/
&NAM_DIAG    
 LVAR_MRW=T         
 LCHEMDIAG=T,
 CSPEC_DIAG='O3,CO',
 CSPEC_BU_DIAG='O3,CO' /
&NAM_DIAG_FILE      YINIFILE(1) = "ICART.1.SEG01.001" ,
                    YINIFILEPGD(1) = "ICARTT1008_PGD_15km",
                    YSUFFIX='dg' /
