&NAM_CONFIO  LCDF4=T, LLFIOUT=T, LLFIREAD=F /
&NAM_SPECTRE             
  LSPECTRE_U=.TRUE.,
  LSPECTRE_V=.TRUE.,
  LSPECTRE_W=.TRUE.,
  LSPECTRE_TH=.TRUE.,
  LSPECTRE_RV=.TRUE.,
  LSPECTRE_LSU=.FALSE.,
  LSPECTRE_LSV=.FALSE.,
  LSPECTRE_LSW=.FALSE.,
  LSPECTRE_LSTH=.FALSE.,
  LSPECTRE_LSRV=.FALSE.,
  LSMOOTH=.TRUE.
/
&NAM_ZOOM_SPECTRE 
  LZOOM=.FALSE.,
  NXDEB=10,
  NYDEB=20,
  NITOT=20,
  NJTOT=30,
/
&NAM_DOMAIN_AROME NI=750,NJ=720,NK=60,XDELTAX=2500.,XDELTAY=2500. /
&NAM_SPECTRE_FILE  YINIFILE(1) = "16JAN.1.12B18.001",CTYPEFILE='MESONH'/
                    
