&NAM_CONFIO  LCDF4=T, LLFIOUT=T, LLFIREAD=F /
&NAM_CONFZ
   !NZ_VERB=5 , NZ_PROC=0 , NB_PROCIO_R=8 , NB_PROCIO_W=8
/

&NAM_LUNIT2_SPA  CINIFILE = "16JAN_06_MNH",
                 CINIFILEPGD="16JAN98_36km.neste1",
                 YDOMAIN  = "16JAN98_9km.neste1",
                 YSPANBR = '04' /

