&NAM_OASIS IL_NB_TIME_STEPS=6,
           DELTA_T=60,
           DATA_FILENAME='grid_toy_model.nc' /

&NAM_FCT_SEND CTYPE_FCT='SINUS',
              VALUE=0.011 /

&NAM_RECV_FIELDS NB_RECV_FIELDS=1,
                 CRCVFIELDS(1)='VARRCV01' /

&NAM_SEND_FIELDS NB_SEND_FIELDS=1, 
                 CSNDFIELDS(1)='VARSIN01' / 
