&NAM_CONFIO  LCDF4=T, LLFIOUT=T, LLFIREAD=F /
&NAM_DIMn_PRE NIMAX=24 NJMAX=24 /
&NAM_CONF_PRE LCARTESIAN=.TRUE.
	      CIDEAL='RSOU' CZS='FLAT' 
              LBOUSS=.FALSE.  LPERTURB=.TRUE. 
	      CEQNSYS='LHE', LSHIFT=.TRUE.,
	      NVERB=5
              !JPHEXT = 3 , NHALO = 3 
              /
&NAM_PERT_PRE CPERT_KIND= 'TH' , XAMPLITH= 1.5 ,
              LSET_RHU= .FALSE. , XAMPLIRV= 0. ,
              XCENTERZ= 1692.31
              XRADX= 10800., XRADY= 10800., XRADZ= 1538.46 /
&NAM_CONFn LUSERV= T , LUSERC= F LUSERI= F /
&NAM_GRID_PRE XLAT0=43.29 /
&NAM_GRIDH_PRE XDELTAX=1.E3 XDELTAY=1.E3  /
&NAM_LUNITn CINIFILE='KWRAIN' /
&NAM_DYNn_PRE CPRESOPT= 'RICHA' NITR=4 XRELAX=1. /
&NAM_LBCn_PRE CLBCX= 2*'OPEN' CLBCY= 2*'OPEN' /
&NAM_VPROF_PRE CTYPELOC='IJGRID' NILOC=10 NJLOC=1
               CFUNU='ZZZ' CFUNV='ZZZ'
               LGEOSBAL=.FALSE. /
&NAM_VER_GRID NKMAX=20 ZDZGRD=500. ZDZTOP=500. /
RSOU
1978 1 1 0. 
'PUVTHVMR'
400.
96500.
303.5
12.5E-3
7
96500. -6.   2.
90000. -1.5  1.
80000.  2.  -2.5
70000.  4.  -6.
62000.  6.5 -2.5
54000. 10.5  5.
41000. 15.  15.
6
80000. 303.5 8.5E-3
70000. 307.  4.5E-3
60000. 312.5 0.8E-3
50000. 320.5 0.0
30000. 342.5 0.0

